%mem=16GB
%nprocshared=2
%Chk=/users/psyche/volatile/gaussian/chk/PM7/dyes/A5_pi12.chk
# PM7 Opt Freq=(NoRaman) nosymm
# SCRF=(SMD,Solvent=Acetonitrile) SCF=(MaxCycle=500,FullDiagonalization)
# Integral=(Grid=UltraFineGrid) CPHF=(MaxInv=20000)

Optimize geometry

0 1
C      -2.2309   -1.6852    0.9316
N      -1.1610   -2.4897    1.1067
C       0.0279   -1.9629    0.7533
C       0.2155   -0.6797    0.2349
C      -0.9310    0.1283    0.0681
N      -0.8832    1.3951   -0.4264
C      -2.0354    2.0870   -0.5477
C      -3.2467    1.5493   -0.1874
N      -3.3491    0.3011    0.3069
C      -2.1959   -0.3984    0.4310
C       1.5830   -0.2588   -0.1001
C       2.8248   -0.8703   -0.0212
C       3.7798    0.0604   -0.5007
C       3.0712    1.1840   -0.8444
O       1.7502    0.9991   -0.6063
H      -3.1832   -2.1232    1.2207
H       0.8628   -2.6413    0.9095
H      -1.9480    3.0909   -0.9458
H      -4.1713    2.1057   -0.2852
H       3.0307   -1.8686    0.3378
H       4.8491   -0.0717   -0.5848
H       3.3405    2.1489   -1.2505

